06_Joshua_Smith/gisPython/Mocksville_Main_Circuit_Opendss/MOCKS_04/Elements/Lines.dss
New Line.624539981 Phases= 3 Bus1=624539968.1.2.3 Bus2=624539979.1.2.3 Length=2.36   units=m  Spacing=8'-ARM-NON-CENTER-POST-3PH wires=['336-ACSR-B-18X1' '336-ACSR-B-18X1' '336-ACSR-B-18X1' '336-ACSR-B-18X1']
New Line.624619467 Phases= 3 Bus1=624619464.1.2.3 Bus2=259322319.1.2.3 Length=23.36  units=m  Spacing=DBL-CKT-10'-&amp;-8'-ARMS-3PH wires=['336-AAC-B-19' '336-AAC-B-19' '336-AAC-B-19' '336-AAC-B-19']
New Line.624619838 Phases= 1 Bus1=254388689.3     Bus2=624619836.3     Length=44.19  units=m  Spacing=VERTICAL-1-PH-60-1PH wires=['4-ACSR-B-6X1' '4-ACSR-B-6X1']
New Line.624619999 Phases= 3 Bus1=254466786.1.2.3 Bus2=624619997.1.2.3 Length=50.26  units=m  Spacing=8'-ARM-NON-CENTER-POST-3PH wires=['336-ACSR-B-18X1' '336-ACSR-B-18X1' '336-ACSR-B-18X1' '1/0-ACSR-B-6X1']
New Line.470236118 Phases= 3 Bus1=254466927.1.2.3 Bus2=470236117.1.2.3 Length=47.80  units=m  Spacing=8'-ARM-NON-CENTER-POST-3PH wires=['1/0-ACSR-B-6X1' '1/0-ACSR-B-6X1' '1/0-ACSR-B-6X1' '1/0-ACSR-B-6X1']
New Line.624620533 Phases= 3 Bus1=254466863.1.2.3 Bus2=624620531.1.2.3 Length=26.43  units=m  Spacing=DBL-CKT-10'-&amp;-8'-ARMS-3PH wires=['336-ACSR-B-18X1' '336-ACSR-B-18X1' '336-ACSR-B-18X1' '336-ACSR-B-18X1']
New Line.624621920 Phases= 1 Bus1=624621917.3     Bus2=624621908.3     Length=110.40 units=m  Spacing=VERTICAL-1-PH-60-1PH wires=['2-ACSR-B-6X1' '2-ACSR-B-6X1']
New Line.624621678 Phases= 3 Bus1=624540265.1.2.3 Bus2=624621676.1.2.3 Length=39.50  units=m  Spacing=DBL-CKT-10'-&amp;-8'-ARMS-3PH wires=['336-ACSR-B-18X1' '336-ACSR-B-18X1' '336-ACSR-B-18X1' '336-ACSR-B-18X1']
New Line.624621814 Phases= 3 Bus1=624621811.1.2.3 Bus2=624564005.1.2.3 Length=6.58   units=m  Spacing=8'-ARM-NON-CENTER-POST-3PH wires=['336-ACSR-B-18X1' '336-ACSR-B-18X1' '336-ACSR-B-18X1' '1/0-ACSR-B-6X1']
New Line.254466676 Phases= 3 Bus1=254466673.1.2.3 Bus2=254466678.1.2.3 Length=6.17   units=m  Spacing=8'-ARM-NON-CENTER-POST-3PH wires=['336-ACSR-B-18X1' '336-ACSR-B-18X1' '336-ACSR-B-18X1' '2-ACSR-B-6X1']
New Line.264400571 Phases= 3 Bus1=254466668.1.2.3 Bus2=264400573.1.2.3 Length=1.52   units=m  Spacing=8'-ARM-NON-CENTER-POST-3PH wires=['336-ACSR-B-18X1' '336-ACSR-B-18X1' '336-ACSR-B-18X1' '1/0-ACSR-B-6X1']
New Line.264400576 Phases= 3 Bus1=264400573.1.2.3 Bus2=254466673.1.2.3 Length=8.50   units=m  Spacing=8'-ARM-NON-CENTER-POST-3PH wires=['336-ACSR-B-18X1' '336-ACSR-B-18X1' '336-ACSR-B-18X1' '1/0-ACSR-B-6X1']
New Line.624620574 Phases= 3 Bus1=254466873.1.2.3 Bus2=624620572.1.2.3 Length=26.18  units=m  Spacing=DBL-CKT-10'-&amp;-8'-ARMS-3PH wires=['336-ACSR-B-18X1' '336-ACSR-B-18X1' '336-ACSR-B-18X1' '336-ACSR-B-18X1']
New Line.624621664 Phases= 3 Bus1=470236033.1.2.3 Bus2=624621662.1.2.3 Length=21.22  units=m  Spacing=8'-ARM-NON-CENTER-POST-3PH wires=['336-ACSR-B-18X1' '336-ACSR-B-18X1' '336-ACSR-B-18X1' '336-ACSR-B-18X1']
New Line.624620031 Phases= 3 Bus1=624620028.1.2.3 Bus2=254466791.1.2.3 Length=21.89  units=m  Spacing=8'-ARM-NON-CENTER-POST-3PH wires=['336-ACSR-B-18X1' '336-ACSR-B-18X1' '336-ACSR-B-18X1' '1/0-ACSR-B-6X1']
New Line.695135212 Phases= 3 Bus1=695135209.1.2.3 Bus2=260033760.1.2.3 Length=20.86  units=m  Spacing=DBL-CKT-10'-&amp;-8'-ARMS-3PH wires=['336-AAC-B-19' '336-AAC-B-19' '336-AAC-B-19' '336-AAC-B-19']
New Line.624540073 Phases= 3 Bus1=254466895.1.2.3 Bus2=624540071.1.2.3 Length=84.84  units=m  Spacing=8'-ARM-NON-CENTER-POST-3PH wires=['336-ACSR-B-18X1' '336-ACSR-B-18X1' '336-ACSR-B-18X1' '336-ACSR-B-18X1']
New Line.254466819 Phases= 3 Bus1=254466816.1.2.3 Bus2=254466821.1.2.3 Length=51.37  units=m  Spacing=8'-ARM-NON-CENTER-POST-3PH wires=['336-ACSR-B-18X1' '336-ACSR-B-18X1' '336-ACSR-B-18X1' '1/0-ACSR-B-6X1']
New Line.624621901 Phases= 1 Bus1=254388604.3     Bus2=624621903.3     Length=1.54   units=m  Spacing=VERTICAL-1-PH-60-1PH wires=['2-ACSR-B-6X1' '2-ACSR-B-6X1']
New Line.264592144 Phases= 3 Bus1=264592146.1.2.3 Bus2=254433344.1.2.3 Length=1.53   units=m  Spacing=8'-ARM-NON-CENTER-POST-3PH wires=['1/0-ACSR-B-6X1' '1/0-ACSR-B-6X1' '1/0-ACSR-B-6X1' '1/0-ACSR-B-6X1']
New Line.624621623 Phases= 3 Bus1=254466900.1.2.3 Bus2=624621621.1.2.3 Length=67.05  units=m  Spacing=8'-ARM-NON-CENTER-POST-3PH wires=['336-ACSR-B-18X1' '336-ACSR-B-18X1' '336-ACSR-B-18X1' '336-ACSR-B-18X1']
New Line.259521823 Phases= 3 Bus1=254466964.1.2.3 Bus2=254466968.1.2.3 Length=62.79  units=m  Spacing=8'-ARM-NON-CENTER-POST-3PH wires=['1/0-ACSR-B-6X1' '1/0-ACSR-B-6X1' '1/0-ACSR-B-6X1' '1/0-ACSR-B-6X1']
New Line.695135378 Phases= 3 Bus1=621329105.1.2.3 Bus2=695135376.1.2.3 Length=26.24  units=m  Spacing=DBL-CKT-10'-&amp;-8'-ARMS-3PH wires=['336-ACSR-B-18X1' '336-ACSR-B-18X1' '336-ACSR-B-18X1' '336-ACSR-B-18X1']
New Line.254466987 Phases= 3 Bus1=254466984.1.2.3 Bus2=254466989.1.2.3 Length=20.66  units=m  Spacing=8'-ARM-NON-CENTER-POST-3PH wires=['1/0-ACSR-B-6X1' '1/0-ACSR-B-6X1' '1/0-ACSR-B-6X1' '1/0-ACSR-B-6X1']
New Line.624621792 Phases= 3 Bus1=624621776.1.2.3 Bus2=624621790.1.2.3 Length=13.43  units=m  Spacing=DBL-CKT-10'-&amp;-8'-ARMS-3PH wires=['336-ACSR-B-18X1' '336-ACSR-B-18X1' '336-ACSR-B-18X1' '336-ACSR-B-18X1']
New Line.624619879 Phases= 3 Bus1=262299998.1.2.3 Bus2=624619877.1.2.3 Length=49.86  units=m  Spacing=8'-ARM-NON-CENTER-POST-3PH wires=['1/0-ACSR-B-6X1' '1/0-ACSR-B-6X1' '1/0-ACSR-B-6X1' '2-ACSR-B-6X1']
New Line.254466925 Phases= 3 Bus1=254466922.1.2.3 Bus2=254466927.1.2.3 Length=74.25  units=m  Spacing=8'-ARM-NON-CENTER-POST-3PH wires=['1/0-ACSR-B-6X1' '1/0-ACSR-B-6X1' '1/0-ACSR-B-6X1' '1/0-ACSR-B-6X1']
New Line.624621544 Phases= 3 Bus1=624621541.1.2.3 Bus2=254466917.1.2.3 Length=3.30   units=m  Spacing=8'-ARM-NON-CENTER-POST-3PH wires=['336-ACSR-B-18X1' '336-ACSR-B-18X1' '336-ACSR-B-18X1' '336-ACSR-B-18X1']
New Line.254466861 Phases= 3 Bus1=254466858.1.2.3 Bus2=254466863.1.2.3 Length=63.70  units=m  Spacing=DBL-CKT-10'-&amp;-8'-ARMS-3PH wires=['336-ACSR-B-18X1' '336-ACSR-B-18X1' '336-ACSR-B-18X1' '336-ACSR-B-18X1']
New Line.624621412 Phases= 1 Bus1=624621395.1     Bus2=624621410.1     Length=12.02  units=m  Spacing=VERTICAL-1-PH-60-1PH wires=['1/0-ACSR-B-6X1' '1/0-ACSR-B-6X1']
New Line.624621831 Phases= 3 Bus1=624621828.1.2.3 Bus2=624621811.1.2.3 Length=17.91  units=m  Spacing=8'-ARM-NON-CENTER-POST-3PH wires=['336-ACSR-B-18X1' '336-ACSR-B-18X1' '336-ACSR-B-18X1' '1/0-ACSR-B-6X1']
New Line.624619466 Phases= 3 Bus1=254388604.1.2.3 Bus2=624619464.1.2.3 Length=9.34   units=m  Spacing=DBL-CKT-10'-&amp;-8'-ARMS-3PH wires=['336-AAC-B-19' '336-AAC-B-19' '336-AAC-B-19' '336-AAC-B-19']
New Line.262300028 Phases= 3 Bus1=262300025.1.2.3 Bus2=254466831.1.2.3 Length=15.02  units=m  Spacing=8'-ARM-NON-CENTER-POST-3PH wires=['336-ACSR-B-18X1' '336-ACSR-B-18X1' '336-ACSR-B-18X1' '1/0-ACSR-B-6X1']
New Line.624620019 Phases= 3 Bus1=624620008.1.2.3 Bus2=624620017.1.2.3 Length=16.92  units=m  Spacing=8'-ARM-NON-CENTER-POST-3PH wires=['336-ACSR-B-18X1' '336-ACSR-B-18X1' '336-ACSR-B-18X1' '1/0-ACSR-B-6X1']
New Line.262300014 Bus1=254466791.1.2.3 Bus2=262300016.1.2.3 LineCode=1/0-AL-HMWPECN-25KV Phases= 3 Length=1.53   units=m enable=yes
New Line.470300491 Phases= 3 Bus1=254466979.1.2.3 Bus2=470300493.1.2.3 Length=91.33  units=m  Spacing=8'-ARM-STANDARD-3PH wires=['1/0-ACSR-B-6X1' '1/0-ACSR-B-6X1' '1/0-ACSR-B-6X1' '1/0-ACSR-B-6X1']
New Line.254466849 Phases= 3 Bus1=254466846.1.2.3 Bus2=254466851.1.2.3 Length=38.08  units=m  Spacing=DBL-CKT-10'-&amp;-8'-ARMS-3PH wires=['336-ACSR-B-18X1' '336-ACSR-B-18X1' '336-ACSR-B-18X1' '336-ACSR-B-18X1']
New Line.254466967 Phases= 3 Bus1=254466968.1.2.3 Bus2=254466969.1.2.3 Length=20.08  units=m  Spacing=8'-ARM-NON-CENTER-POST-3PH wires=['1/0-ACSR-B-6X1' '1/0-ACSR-B-6X1' '1/0-ACSR-B-6X1' '1/0-ACSR-B-6X1']
New Line.254466794 Phases= 3 Bus1=254466791.1.2.3 Bus2=254466796.1.2.3 Length=158.40 units=m  Spacing=8'-ARM-NON-CENTER-POST-3PH wires=['336-ACSR-B-18X1' '336-ACSR-B-18X1' '336-ACSR-B-18X1' '1/0-ACSR-B-6X1']
New Line.254466740 Phases= 3 Bus1=254466737.1.2.3 Bus2=254466742.1.2.3 Length=88.39  units=m  Spacing=DBL-CKT-10'-&amp;-8'-ARMS-3PH wires=['2-CU-B-7' '2-CU-B-7' '2-CU-B-7' '2-CU-B-7']
New Line.624621644 Phases= 3 Bus1=624621641.1.2.3 Bus2=470236033.1.2.3 Length=1.00   units=m  Spacing=DBL-CKT-10'-&amp;-8'-ARMS-3PH wires=['336-ACSR-B-18X1' '336-ACSR-B-18X1' '336-ACSR-B-18X1' '336-ACSR-B-18X1']
New Line.624620010 Phases= 3 Bus1=624619997.1.2.3 Bus2=624620008.1.2.3 Length=30.73  units=m  Spacing=8'-ARM-NON-CENTER-POST-3PH wires=['336-ACSR-B-18X1' '336-ACSR-B-18X1' '336-ACSR-B-18X1' '1/0-ACSR-B-6X1']
New Line.254466952 Phases= 1 Bus1=254466949.1     Bus2=254466954.1     Length=32.64  units=m  Spacing=VERTICAL-1-PH-60-1PH wires=['1/0-ACSR-B-6X1' '1/0-ACSR-B-6X1']
New Line.264426092 Phases= 3 Bus1=254466732.1.2.3 Bus2=264426094.1.2.3 Length=1.53   units=m  Spacing=DBL-CKT-10'-&amp;-8'-ARMS-3PH wires=['2-CU-B-7' '2-CU-B-7' '2-CU-B-7' '2-CU-B-7']
New Line.624619828 Phases= 1 Bus1=624619825.3     Bus2=254388689.3     Length=33.92  units=m  Spacing=VERTICAL-1-PH-60-1PH wires=['4-ACSR-B-6X1' '4-ACSR-B-6X1']
New Line.254466824 Phases= 1 Bus1=254466821.3     Bus2=254466826.3     Length=9.13   units=m  Spacing=VERTICAL-1-PH-60-1PH wires=['1/0-ACSR-B-6X1' '1/0-ACSR-B-6X1']
New Line.624621872 Phases= 3 Bus1=624621856.1.2.3 Bus2=624621870.1.2.3 Length=16.36  units=m  Spacing=DBL-CKT-10'-&amp;-8'-ARMS-3PH wires=['336-AAC-B-19' '336-AAC-B-19' '336-AAC-B-19' '336-AAC-B-19']
New Line.624540064 Phases= 3 Bus1=624540053.1.2.3 Bus2=624540062.1.2.3 Length=102.90 units=m  Spacing=8'-ARM-NON-CENTER-POST-3PH wires=['336-ACSR-B-18X1' '336-ACSR-B-18X1' '336-ACSR-B-18X1' '336-ACSR-B-18X1']
New Line.624621210 Phases= 3 Bus1=624621207.1.2.3 Bus2=482826011.1.2.3 Length=30.93  units=m  Spacing=DBL-CKT-10'-&amp;-8'-ARMS-3PH wires=['336-ACSR-B-18X1' '336-ACSR-B-18X1' '336-ACSR-B-18X1' '336-ACSR-B-18X1']
New Line.262300010 Phases= 3 Bus1=262300007.1.2.3 Bus2=254466762.1.2.3 Length=17.00  units=m  Spacing=8'-ARM-NON-CENTER-POST-3PH wires=['2-ACSR-B-6X1' '2-ACSR-B-6X1' '2-ACSR-B-6X1' '2-ACSR-B-6X1']
New Line.624621665 Phases= 3 Bus1=624621662.1.2.3 Bus2=254466890.1.2.3 Length=46.04  units=m  Spacing=8'-ARM-NON-CENTER-POST-3PH wires=['336-ACSR-B-18X1' '336-ACSR-B-18X1' '336-ACSR-B-18X1' '336-ACSR-B-18X1']
New Line.624621624 Phases= 3 Bus1=624621621.1.2.3 Bus2=254466905.1.2.3 Length=61.92  units=m  Spacing=8'-ARM-NON-CENTER-POST-3PH wires=['336-ACSR-B-18X1' '336-ACSR-B-18X1' '336-ACSR-B-18X1' '336-ACSR-B-18X1']
New Line.449579736 Bus1=449579725.1.2.3 Bus2=259521820.1.2.3 LineCode=1/0-AL-TRXLPELCJ-25KV Phases= 3 Length=13.72  units=m enable=yes
New Line.264540749 Phases= 3 Bus1=254466678.1.2.3 Bus2=264540751.1.2.3 Length=1.53   units=m  Spacing=8'-ARM-NON-CENTER-POST-3PH wires=['1/0-ACSR-B-6X1' '1/0-ACSR-B-6X1' '1/0-ACSR-B-6X1' '2-ACSR-B-6X1']
New Line.624621919 Phases= 1 Bus1=624621903.3     Bus2=624621917.3     Length=49.98  units=m  Spacing=VERTICAL-1-PH-60-1PH wires=['2-ACSR-B-6X1' '2-ACSR-B-6X1']
New Line.452176283 Phases= 3 Bus1=452176284.1.2.3 Bus2=452176285.1.2.3 Length=1.53   units=m  Spacing=8'-ARM-NON-CENTER-POST-3PH wires=['1/0-ACSR-B-6X1' '1/0-ACSR-B-6X1' '1/0-ACSR-B-6X1' '1/0-ACSR-B-6X1']
New Line.254466772 Phases= 3 Bus1=254466773.1.2.3 Bus2=254466774.1.2.3 Length=48.67  units=m  Spacing=8'-ARM-NON-CENTER-POST-3PH wires=['336-ACSR-B-18X1' '336-ACSR-B-18X1' '336-ACSR-B-18X1' '1/0-ACSR-B-6X1']
New Line.624621942 Phases= 3 Bus1=624621939.1.2.3 Bus2=254466682.1.2.3 Length=16.54  units=m  Spacing=8'-ARM-NON-CENTER-POST-3PH wires=['336-ACSR-B-18X1' '336-ACSR-B-18X1' '336-ACSR-B-18X1' '1/0-ACSR-B-6X1']
New Line.624621227 Phases= 3 Bus1=254466979.1.2.3 Bus2=624621225.1.2.3 Length=16.87  units=m  Spacing=8'-ARM-NON-CENTER-POST-3PH wires=['1/0-ACSR-B-6X1' '1/0-ACSR-B-6X1' '1/0-ACSR-B-6X1' '1/0-ACSR-B-6X1']
New Line.695135305 Phases= 3 Bus1=695135302.1.2.3 Bus2=493539622.1.2.3 Length=2.25   units=m  Spacing=DBL-CKT-10'-&amp;-8'-ARMS-3PH wires=['336-ACSR-B-18X1' '336-ACSR-B-18X1' '336-ACSR-B-18X1' '336-ACSR-B-18X1']
New Line.254466666 Phases= 3 Bus1=MOCKSVILLE_MN_03552404_REG.1.2.3 Bus2=254466668.1.2.3 Length=16.59  units=m  Spacing=8'-ARM-NON-CENTER-POST-3PH wires=['336-ACSR-B-18X1' '336-ACSR-B-18X1' '336-ACSR-B-18X1' '1/0-ACSR-B-6X1']
New Line.695135131 Phases= 3 Bus1=695135128.1.2.3 Bus2=624619762.1.2.3 Length=18.01  units=m  Spacing=DBL-CKT-10'-&amp;-8'-ARMS-3PH wires=['2-CU-B-7' '2-CU-B-7' '2-CU-B-7' '2-CU-B-7']
New Line.254388697 Phases= 1 Bus1=254388694.3     Bus2=254388699.3     Length=23.69  units=m  Spacing=VERTICAL-1-PH-60-1PH wires=['4-ACSR-B-6X1' '4-ACSR-B-6X1']
New Line.254388608 Phases= 1 Bus1=254388605.3     Bus2=254388610.3     Length=59.07  units=m  Spacing=VERTICAL-1-PH-60-1PH wires=['2-ACSR-B-6X1' '2-ACSR-B-6X1']
New Line.254466799 Phases= 3 Bus1=254466796.1.2.3 Bus2=254466801.1.2.3 Length=44.15  units=m  Spacing=8'-ARM-NON-CENTER-POST-3PH wires=['336-ACSR-B-18X1' '336-ACSR-B-18X1' '336-ACSR-B-18X1' '1/0-ACSR-B-6X1']
New Line.449579728 Phases= 3 Bus1=264393783.1.2.3 Bus2=449579725.1.2.3 Length=8.38   units=m  Spacing=8'-ARM-STANDARD-3PH wires=['1/0-ACSR-B-6X1' '1/0-ACSR-B-6X1' '1/0-ACSR-B-6X1' '1/0-ACSR-B-6X1']
New Line.695135130 Phases= 3 Bus1=254466715.1.2.3 Bus2=695135128.1.2.3 Length=17.06  units=m  Spacing=DBL-CKT-10'-&amp;-8'-ARMS-3PH wires=['2-CU-B-7' '2-CU-B-7' '2-CU-B-7' '2-CU-B-7']
New Line.695135379 Phases= 3 Bus1=695135376.1.2.3 Bus2=695135362.1.2.3 Length=24.86  units=m  Spacing=DBL-CKT-10'-&amp;-8'-ARMS-3PH wires=['336-ACSR-B-18X1' '336-ACSR-B-18X1' '336-ACSR-B-18X1' '336-ACSR-B-18X1']
New Line.259199694 Phases= 3 Bus1=254466752.1.2.3 Bus2=254466756.1.2.3 Length=45.27  units=m  Spacing=8'-ARM-NON-CENTER-POST-3PH wires=['1/0-ACSR-B-6X1' '1/0-ACSR-B-6X1' '1/0-ACSR-B-6X1' '2-ACSR-B-6X1']
New Line.624620575 Phases= 3 Bus1=624620572.1.2.3 Bus2=254466878.1.2.3 Length=64.87  units=m  Spacing=DBL-CKT-10'-&amp;-8'-ARMS-3PH wires=['336-ACSR-B-18X1' '336-ACSR-B-18X1' '336-ACSR-B-18X1' '336-ACSR-B-18X1']
New Line.624540093 Phases= 3 Bus1=624540082.1.2.3 Bus2=624540091.1.2.3 Length=14.85  units=m  Spacing=8'-ARM-NON-CENTER-POST-3PH wires=['336-ACSR-B-18X1' '336-ACSR-B-18X1' '336-ACSR-B-18X1' '336-ACSR-B-18X1']
New Line.262279089 Phases= 1 Bus1=262279086.3     Bus2=254388684.3     Length=13.33  units=m  Spacing=VERTICAL-1-PH-60-1PH wires=['4-ACSR-B-6X1' '4-ACSR-B-6X1']
New Line.624621726 Phases= 3 Bus1=624540254.1.2.3 Bus2=624621724.1.2.3 Length=3.12   units=m  Spacing=DBL-CKT-10'-&amp;-8'-ARMS-3PH wires=['336-ACSR-B-18X1' '336-ACSR-B-18X1' '336-ACSR-B-18X1' '336-ACSR-B-18X1']
New Line.469674697 Phases= 1 Bus1=469674693.3     Bus2=254466806.3     Length=32.90  units=m  Spacing=VERTICAL-1-PH-60-1PH wires=['1/0-ACSR-B-6X1' '1/0-ACSR-B-6X1']
New Line.259322318 Phases= 3 Bus1=259322319.1.2.3 Bus2=254466709.1.2.3 Length=38.03  units=m  Spacing=DBL-CKT-10'-&amp;-8'-ARMS-3PH wires=['336-AAC-B-19' '336-AAC-B-19' '336-AAC-B-19' '336-AAC-B-19']
New Line.695135365 Phases= 3 Bus1=695135362.1.2.3 Bus2=254466883.1.2.3 Length=17.35  units=m  Spacing=DBL-CKT-10'-&amp;-8'-ARMS-3PH wires=['336-ACSR-B-18X1' '336-ACSR-B-18X1' '336-ACSR-B-18X1' '336-ACSR-B-18X1']
New Line.624621382 Phases= 3 Bus1=452176285.1.2.3 Bus2=624621380.1.2.3 Length=8.97   units=m  Spacing=8'-ARM-NON-CENTER-POST-3PH wires=['1/0-ACSR-B-6X1' '1/0-ACSR-B-6X1' '1/0-ACSR-B-6X1' '1/0-ACSR-B-6X1']
New Line.470300518 Bus1=470300514.1.2.3 Bus2=470300510.1.2.3 LineCode=1/0-AL-TRXLPELCJ-25KV Phases= 3 Length=77.71  units=m enable=yes
New Line.262300032 Phases= 1 Bus1=254466944.1     Bus2=262300034.1     Length=1.52   units=m  Spacing=VERTICAL-1-PH-60-1PH wires=['1/0-ACSR-B-6X1' '1/0-ACSR-B-6X1']
New Line.624621778 Phases= 3 Bus1=254466851.1.2.3 Bus2=624621776.1.2.3 Length=28.88  units=m  Spacing=DBL-CKT-10'-&amp;-8'-ARMS-3PH wires=['336-ACSR-B-18X1' '336-ACSR-B-18X1' '336-ACSR-B-18X1' '336-ACSR-B-18X1']
New Line.624619765 Phases= 3 Bus1=624619762.1.2.3 Bus2=254466727.1.2.3 Length=28.45  units=m  Spacing=DBL-CKT-10'-&amp;-8'-ARMS-3PH wires=['2-CU-B-7' '2-CU-B-7' '2-CU-B-7' '2-CU-B-7']
New Line.624619894 Phases= 3 Bus1=624619877.1.2.3 Bus2=624619892.1.2.3 Length=26.27  units=m  Spacing=8'-ARM-NON-CENTER-POST-3PH wires=['1/0-ACSR-B-6X1' '1/0-ACSR-B-6X1' '1/0-ACSR-B-6X1' '2-ACSR-B-6X1']
New Line.624621228 Phases= 3 Bus1=624621225.1.2.3 Bus2=254466984.1.2.3 Length=7.36   units=m  Spacing=8'-ARM-NON-CENTER-POST-3PH wires=['1/0-ACSR-B-6X1' '1/0-ACSR-B-6X1' '1/0-ACSR-B-6X1' '1/0-ACSR-B-6X1']
New Line.264591500 Phases= 3 Bus1=264591498.1.2.3 Bus2=254433349.1.2.3 Length=52.89  units=m  Spacing=8'-ARM-STANDARD-3PH wires=['1/0-ACSR-B-6X1' '1/0-ACSR-B-6X1' '1/0-ACSR-B-6X1' '1/0-ACSR-B-6X1']
New Line.259521828 Phases= 3 Bus1=254466968.1.2.3 Bus2=259521819.1.2.3 Length=9.90   units=m  Spacing=8'-ARM-STANDARD-3PH wires=['1/0-ACSR-B-6X1' '1/0-ACSR-B-6X1' '1/0-ACSR-B-6X1' '1/0-ACSR-B-6X1']
New Line.624621679 Phases= 3 Bus1=624621676.1.2.3 Bus2=624621641.1.2.3 Length=19.20  units=m  Spacing=DBL-CKT-10'-&amp;-8'-ARMS-3PH wires=['336-ACSR-B-18X1' '336-ACSR-B-18X1' '336-ACSR-B-18X1' '336-ACSR-B-18X1']
New Line.254388707 Phases= 1 Bus1=254388704.3     Bus2=254388709.3     Length=64.72  units=m  Spacing=VERTICAL-1-PH-60-1PH wires=['2-CU-B-7' '4-CU-B-7']
New Line.254466708 Phases= 3 Bus1=254466709.1.2.3 Bus2=254466710.1.2.3 Length=27.21  units=m  Spacing=DBL-CKT-10'-&amp;-8'-ARMS-3PH wires=['336-AAC-B-19' '336-AAC-B-19' '336-AAC-B-19' '336-AAC-B-19']
New Line.254466755 Phases= 3 Bus1=254466756.1.2.3 Bus2=254466757.1.2.3 Length=36.17  units=m  Spacing=8'-ARM-NON-CENTER-POST-3PH wires=['1/0-ACSR-B-6X1' '1/0-ACSR-B-6X1' '1/0-ACSR-B-6X1' '2-ACSR-B-6X1']
New Line.624621592 Phases= 3 Bus1=624621589.1.2.3 Bus2=254466922.1.2.3 Length=8.40   units=m  Spacing=8'-ARM-NON-CENTER-POST-3PH wires=['336-ACSR-B-18X1' '336-ACSR-B-18X1' '336-ACSR-B-18X1' '336-ACSR-B-18X1']
New Line.254466977 Phases= 3 Bus1=254466969.1.2.3 Bus2=254466979.1.2.3 Length=42.64  units=m  Spacing=8'-ARM-NON-CENTER-POST-3PH wires=['1/0-ACSR-B-6X1' '1/0-ACSR-B-6X1' '1/0-ACSR-B-6X1' '1/0-ACSR-B-6X1']
New Line.624540256 Phases= 3 Bus1=254466883.1.2.3 Bus2=624540254.1.2.3 Length=67.51  units=m  Spacing=DBL-CKT-10'-&amp;-8'-ARMS-3PH wires=['336-ACSR-B-18X1' '336-ACSR-B-18X1' '336-ACSR-B-18X1' '336-ACSR-B-18X1']
New Line.624564008 Phases= 3 Bus1=624564005.1.2.3 Bus2=470236171.1.2.3 Length=13.85  units=m  Spacing=8'-ARM-NON-CENTER-POST-3PH wires=['336-ACSR-B-18X1' '336-ACSR-B-18X1' '336-ACSR-B-18X1' '1/0-ACSR-B-6X1']
New Line.259199779 Phases= 3 Bus1=254466742.1.2.3 Bus2=254466773.1.2.3 Length=20.13  units=m  Spacing=8'-ARM-NON-CENTER-POST-3PH wires=['336-ACSR-B-18X1' '336-ACSR-B-18X1' '336-ACSR-B-18X1' '1/0-ACSR-B-6X1']
New Line.624619850 Phases= 1 Bus1=624619847.3     Bus2=254388694.3     Length=26.59  units=m  Spacing=VERTICAL-1-PH-60-1PH wires=['4-ACSR-B-6X1' '4-ACSR-B-6X1']
New Line.624621580 Phases= 3 Bus1=624539979.1.2.3 Bus2=624621578.1.2.3 Length=7.96   units=m  Spacing=8'-ARM-NON-CENTER-POST-3PH wires=['336-ACSR-B-18X1' '336-ACSR-B-18X1' '336-ACSR-B-18X1' '336-ACSR-B-18X1']
New Line.262299996 Phases= 3 Bus1=254466737.1.2.3 Bus2=262299998.1.2.3 Length=1.53   units=m  Spacing=8'-ARM-NON-CENTER-POST-3PH wires=['1/0-ACSR-B-6X1' '1/0-ACSR-B-6X1' '1/0-ACSR-B-6X1' '2-ACSR-B-6X1']
New Line.254466809 Phases= 3 Bus1=254466801.1.2.3 Bus2=254466811.1.2.3 Length=41.04  units=m  Spacing=8'-ARM-NON-CENTER-POST-3PH wires=['336-ACSR-B-18X1' '336-ACSR-B-18X1' '336-ACSR-B-18X1' '1/0-ACSR-B-6X1']
New Line.264426097 Phases= 3 Bus1=264426094.1.2.3 Bus2=254466737.1.2.3 Length=56.62  units=m  Spacing=DBL-CKT-10'-&amp;-8'-ARMS-3PH wires=['2-CU-B-7' '2-CU-B-7' '2-CU-B-7' '2-CU-B-7']
New Line.254388618 Phases= 1 Bus1=254388615.3     Bus2=254388620.3     Length=69.91  units=m  Spacing=VERTICAL-1-PH-60-1PH wires=['2-ACSR-B-6X1' '2-ACSR-B-6X1']
New Line.263729879 Bus1=263729876.1.2.3 Bus2=261002256.1.2.3 LineCode=1/0-AL-TRXLPELCJ-25KV Phases= 3 Length=12.09  units=m enable=yes
New Line.259322348 Phases= 3 Bus1=254466727.1.2.3 Bus2=259322344.1.2.3 Length=16.83  units=m  Spacing=DBL-CKT-10'-&amp;-8'-ARMS-3PH wires=['2-CU-B-7' '2-CU-B-7' '2-CU-B-7' '2-CU-B-7']
New Line.254466908 Phases= 3 Bus1=254466905.1.2.3 Bus2=254466910.1.2.3 Length=59.16  units=m  Spacing=8'-ARM-NON-CENTER-POST-3PH wires=['336-ACSR-B-18X1' '336-ACSR-B-18X1' '336-ACSR-B-18X1' '336-ACSR-B-18X1']
New Line.254466750 Phases= 3 Bus1=254466747.1.2.3 Bus2=254466752.1.2.3 Length=22.16  units=m  Spacing=8'-ARM-NON-CENTER-POST-3PH wires=['1/0-ACSR-B-6X1' '1/0-ACSR-B-6X1' '1/0-ACSR-B-6X1' '2-ACSR-B-6X1']
New Line.259322338 Phases= 3 Bus1=259322339.1.2.3 Bus2=254388683.1.2.3 Length=37.28  units=m  Spacing=DBL-CKT-10'-&amp;-8'-ARMS-3PH wires=['2-CU-B-7' '2-CU-B-7' '2-CU-B-7' '2-CU-B-7']
New Line.262300041 Phases= 3 Bus1=254466964.1.2.3 Bus2=262300043.1.2.3 Length=1.52   units=m  Spacing=8'-ARM-NON-CENTER-POST-3PH wires=['1/0-ACSR-B-6X1' '1/0-ACSR-B-6X1' '1/0-ACSR-B-6X1' '1/0-ACSR-B-6X1']
New Line.624621301 Phases= 3 Bus1=624621298.1.2.3 Bus2=254466974.1.2.3 Length=12.82  units=m  Spacing=8'-ARM-NON-CENTER-POST-3PH wires=['1/0-ACSR-B-6X1' '1/0-ACSR-B-6X1' '1/0-ACSR-B-6X1' '1/0-ACSR-B-6X1']
New Line.624540094 Phases= 3 Bus1=624540091.1.2.3 Bus2=254466900.1.2.3 Length=9.89   units=m  Spacing=8'-ARM-NON-CENTER-POST-3PH wires=['336-ACSR-B-18X1' '336-ACSR-B-18X1' '336-ACSR-B-18X1' '336-ACSR-B-18X1']
New Line.624621960 Phases= 3 Bus1=624621957.1.2.3 Bus2=624540530.1.2.3 Length=1.65   units=m  Spacing=8'-ARM-NON-CENTER-POST-3PH wires=['336-ACSR-B-18X1' '336-ACSR-B-18X1' '336-ACSR-B-18X1' '1/0-ACSR-B-6X1']
New Line.624621316 Phases= 3 Bus1=624621313.1.2.3 Bus2=254466959.1.2.3 Length=16.76  units=m  Spacing=8'-ARM-NON-CENTER-POST-3PH wires=['1/0-ACSR-B-6X1' '1/0-ACSR-B-6X1' '1/0-ACSR-B-6X1' '1/0-ACSR-B-6X1']
New Line.624622037 Phases= 3 Bus1=254466673.1.2.3 Bus2=624622035.1.2.3 Length=4.64   units=m  Spacing=8'-ARM-NON-CENTER-POST-3PH wires=['336-ACSR-B-18X1' '336-ACSR-B-18X1' '336-ACSR-B-18X1' '1/0-ACSR-B-6X1']
New Line.482826013 Phases= 3 Bus1=482826011.1.2.3 Bus2=470235964.1.2.3 Length=59.37  units=m  Spacing=DBL-CKT-10'-&amp;-8'-ARMS-3PH wires=['336-ACSR-B-18X1' '336-ACSR-B-18X1' '336-ACSR-B-18X1' '336-ACSR-B-18X1']
New Line.624621845 Phases= 3 Bus1=624621842.1.2.3 Bus2=254466698.1.2.3 Length=56.16  units=m  Spacing=DBL-CKT-10'-&amp;-8'-ARMS-3PH wires=['336-AAC-B-19' '336-AAC-B-19' '336-AAC-B-19' '336-AAC-B-19']
New Line.624620534 Phases= 3 Bus1=624620531.1.2.3 Bus2=254466868.1.2.3 Length=74.40  units=m  Spacing=DBL-CKT-10'-&amp;-8'-ARMS-3PH wires=['336-ACSR-B-18X1' '336-ACSR-B-18X1' '336-ACSR-B-18X1' '336-ACSR-B-18X1']
New Line.624621383 Phases= 3 Bus1=624621380.1.2.3 Bus2=254466943.1.2.3 Length=26.90  units=m  Spacing=8'-ARM-NON-CENTER-POST-3PH wires=['1/0-ACSR-B-6X1' '1/0-ACSR-B-6X1' '1/0-ACSR-B-6X1' '1/0-ACSR-B-6X1']
New Line.262279084 Phases= 1 Bus1=254388683.3     Bus2=262279086.3     Length=1.53   units=m  Spacing=VERTICAL-1-PH-60-1PH wires=['1/0-ACSR-B-6X1' '1/0-ACSR-B-6X1']
New Line.624620597 Phases= 3 Bus1=624620594.1.2.3 Bus2=621329105.1.2.3 Length=22.20  units=m  Spacing=DBL-CKT-10'-&amp;-8'-ARMS-3PH wires=['336-ACSR-B-18X1' '336-ACSR-B-18X1' '336-ACSR-B-18X1' '336-ACSR-B-18X1']
New Line.262300019 Bus1=262300016.1.2.3 Bus2=260119730.1.2.3 LineCode=1/0-AL-HMWPECN-25KV Phases= 3 Length=16.62  units=m enable=yes
New Line.262300023 Phases= 3 Bus1=254466821.1.2.3 Bus2=262300025.1.2.3 Length=1.53   units=m  Spacing=8'-ARM-NON-CENTER-POST-3PH wires=['336-ACSR-B-18X1' '336-ACSR-B-18X1' '336-ACSR-B-18X1' '1/0-ACSR-B-6X1']
New Line.624621886 Phases= 3 Bus1=624621870.1.2.3 Bus2=624621884.1.2.3 Length=20.15  units=m  Spacing=DBL-CKT-10'-&amp;-8'-ARMS-3PH wires=['336-AAC-B-19' '336-AAC-B-19' '336-AAC-B-19' '336-AAC-B-19']
New Line.254388712 Phases= 1 Bus1=254388704.3     Bus2=254388714.3     Length=44.51  units=m  Spacing=VERTICAL-1-PH-60-1PH wires=['4-ACSR-B-6X1' '4-ACSR-B-6X1']
New Line.470236119 Phases= 3 Bus1=470236117.1.2.3 Bus2=254466931.1.2.3 Length=48.70  units=m  Spacing=8'-ARM-NON-CENTER-POST-3PH wires=['1/0-ACSR-B-6X1' '1/0-ACSR-B-6X1' '1/0-ACSR-B-6X1' '1/0-ACSR-B-6X1']
New Line.254466718 Phases= 3 Bus1=254466715.1.2.3 Bus2=254466720.1.2.3 Length=29.79  units=m  Spacing=DBL-CKT-10'-&amp;-8'-ARMS-3PH wires=['336-AAC-B-19' '336-AAC-B-19' '336-AAC-B-19' '336-AAC-B-19']
New Line.624622038 Phases= 3 Bus1=624622035.1.2.3 Bus2=624621957.1.2.3 Length=13.15  units=m  Spacing=8'-ARM-NON-CENTER-POST-3PH wires=['336-ACSR-B-18X1' '336-ACSR-B-18X1' '336-ACSR-B-18X1' '1/0-ACSR-B-6X1']
New Line.624540065 Phases= 3 Bus1=624540062.1.2.3 Bus2=254466895.1.2.3 Length=29.27  units=m  Spacing=8'-ARM-NON-CENTER-POST-3PH wires=['336-ACSR-B-18X1' '336-ACSR-B-18X1' '336-ACSR-B-18X1' '336-ACSR-B-18X1']
New Line.624621300 Phases= 3 Bus1=262300043.1.2.3 Bus2=624621298.1.2.3 Length=37.94  units=m  Spacing=8'-ARM-NON-CENTER-POST-3PH wires=['1/0-ACSR-B-6X1' '1/0-ACSR-B-6X1' '1/0-ACSR-B-6X1' '1/0-ACSR-B-6X1']
New Line.254466779 Phases= 3 Bus1=254466774.1.2.3 Bus2=254466781.1.2.3 Length=19.12  units=m  Spacing=8'-ARM-NON-CENTER-POST-3PH wires=['336-ACSR-B-18X1' '336-ACSR-B-18X1' '336-ACSR-B-18X1' '1/0-ACSR-B-6X1']
New Line.624621887 Phases= 3 Bus1=624621884.1.2.3 Bus2=254388604.1.2.3 Length=24.95  units=m  Spacing=DBL-CKT-10'-&amp;-8'-ARMS-3PH wires=['336-AAC-B-19' '336-AAC-B-19' '336-AAC-B-19' '336-AAC-B-19']
New Line.624621741 Phases= 3 Bus1=624621738.1.2.3 Bus2=624540265.1.2.3 Length=2.31   units=m  Spacing=DBL-CKT-10'-&amp;-8'-ARMS-3PH wires=['336-ACSR-B-18X1' '336-ACSR-B-18X1' '336-ACSR-B-18X1' '336-ACSR-B-18X1']
New Line.624621793 Phases= 3 Bus1=624621790.1.2.3 Bus2=624621207.1.2.3 Length=165.70 units=m  Spacing=DBL-CKT-10'-&amp;-8'-ARMS-3PH wires=['336-ACSR-B-18X1' '336-ACSR-B-18X1' '336-ACSR-B-18X1' '336-ACSR-B-18X1']
New Line.264393781 Phases= 3 Bus1=259521819.1.2.3 Bus2=264393783.1.2.3 Length=1.53   units=m  Spacing=8'-ARM-STANDARD-3PH wires=['1/0-ACSR-B-6X1' '1/0-ACSR-B-6X1' '1/0-ACSR-B-6X1' '1/0-ACSR-B-6X1']
New Line.264540754 Phases= 3 Bus1=264540751.1.2.3 Bus2=254466836.1.2.3 Length=20.55  units=m  Spacing=8'-ARM-NON-CENTER-POST-3PH wires=['1/0-ACSR-B-6X1' '1/0-ACSR-B-6X1' '1/0-ACSR-B-6X1' '2-ACSR-B-6X1']
New Line.254466935 Phases= 3 Bus1=254466927.1.2.3 Bus2=254466937.1.2.3 Length=59.38  units=m  Spacing=8'-ARM-NON-CENTER-POST-3PH wires=['1/0-ACSR-B-6X1' '1/0-ACSR-B-6X1' '1/0-ACSR-B-6X1' '1/0-ACSR-B-6X1']
New Line.695135290 Phases= 3 Bus1=254466742.1.2.3 Bus2=695135288.1.2.3 Length=15.18  units=m  Spacing=DBL-CKT-10'-&amp;-8'-ARMS-3PH wires=['336-ACSR-B-18X1' '336-ACSR-B-18X1' '336-ACSR-B-18X1' '336-ACSR-B-18X1']
New Line.695135165 Phases= 3 Bus1=254466710.1.2.3 Bus2=695135163.1.2.3 Length=17.86  units=m  Spacing=DBL-CKT-10'-&amp;-8'-ARMS-3PH wires=['336-AAC-B-19' '336-AAC-B-19' '336-AAC-B-19' '336-AAC-B-19']
New Line.254388717 Phases= 1 Bus1=254388709.3     Bus2=254388719.3     Length=76.62  units=m  Spacing=VERTICAL-1-PH-60-1PH wires=['4-ACSR-B-6X1' '4-ACSR-B-6X1']
New Line.624540055 Phases= 3 Bus1=624540042.1.2.3 Bus2=624540053.1.2.3 Length=41.03  units=m  Spacing=8'-ARM-NON-CENTER-POST-3PH wires=['336-ACSR-B-18X1' '336-ACSR-B-18X1' '336-ACSR-B-18X1' '336-ACSR-B-18X1']
New Line.254433347 Phases= 3 Bus1=254433349.1.2.3 Bus2=254433348.1.2.3 Length=48.96  units=m  Spacing=8'-ARM-NON-CENTER-POST-3PH wires=['1/0-ACSR-B-6X1' '1/0-ACSR-B-6X1' '1/0-ACSR-B-6X1' '1/0-ACSR-B-6X1']
New Line.254466930 Phases= 3 Bus1=254466931.1.2.3 Bus2=254466932.1.2.3 Length=6.82   units=m  Spacing=8'-ARM-NON-CENTER-POST-3PH wires=['1/0-ACSR-B-6X1' '1/0-ACSR-B-6X1' '1/0-ACSR-B-6X1' '1/0-ACSR-B-6X1']
New Line.624620596 Phases= 3 Bus1=254466878.1.2.3 Bus2=624620594.1.2.3 Length=40.26  units=m  Spacing=DBL-CKT-10'-&amp;-8'-ARMS-3PH wires=['336-ACSR-B-18X1' '336-ACSR-B-18X1' '336-ACSR-B-18X1' '336-ACSR-B-18X1']
New Line.254466784 Phases= 3 Bus1=254466781.1.2.3 Bus2=254466786.1.2.3 Length=26.62  units=m  Spacing=8'-ARM-NON-CENTER-POST-3PH wires=['336-ACSR-B-18X1' '336-ACSR-B-18X1' '336-ACSR-B-18X1' '1/0-ACSR-B-6X1']
New Line.262300005 Phases= 3 Bus1=254466752.1.2.3 Bus2=262300007.1.2.3 Length=1.52   units=m  Spacing=8'-ARM-NON-CENTER-POST-3PH wires=['2-ACSR-B-6X1' '2-ACSR-B-6X1' '2-ACSR-B-6X1' '2-ACSR-B-6X1']
New Line.624539970 Phases= 3 Bus1=254466917.1.2.3 Bus2=624539968.1.2.3 Length=8.88   units=m  Spacing=8'-ARM-NON-CENTER-POST-3PH wires=['336-ACSR-B-18X1' '336-ACSR-B-18X1' '336-ACSR-B-18X1' '336-ACSR-B-18X1']
New Line.624621326 Phases= 3 Bus1=254466932.1.2.3 Bus2=624621324.1.2.3 Length=24.91  units=m  Spacing=8'-ARM-NON-CENTER-POST-3PH wires=['1/0-ACSR-B-6X1' '1/0-ACSR-B-6X1' '1/0-ACSR-B-6X1' '1/0-ACSR-B-6X1']
New Line.469674691 Phases= 1 Bus1=254466801.3     Bus2=469674693.3     Length=1.53   units=m  Spacing=VERTICAL-1-PH-60-1PH wires=['1/0-ACSR-B-6X1' '1/0-ACSR-B-6X1']
New Line.254466962 Phases= 3 Bus1=254466959.1.2.3 Bus2=254466964.1.2.3 Length=20.31  units=m  Spacing=8'-ARM-NON-CENTER-POST-3PH wires=['1/0-ACSR-B-6X1' '1/0-ACSR-B-6X1' '1/0-ACSR-B-6X1' '1/0-ACSR-B-6X1']
New Line.624619895 Phases= 3 Bus1=624619892.1.2.3 Bus2=254466747.1.2.3 Length=30.01  units=m  Spacing=8'-ARM-NON-CENTER-POST-3PH wires=['1/0-ACSR-B-6X1' '1/0-ACSR-B-6X1' '1/0-ACSR-B-6X1' '2-ACSR-B-6X1']
New Line.254466839 Phases= 3 Bus1=254466836.1.2.3 Bus2=254466841.1.2.3 Length=27.11  units=m  Spacing=8'-ARM-NON-CENTER-POST-3PH wires=['1/0-ACSR-B-6X1' '1/0-ACSR-B-6X1' '1/0-ACSR-B-6X1' '2-ACSR-B-6X1']
New Line.624621941 Phases= 3 Bus1=624540530.1.2.3 Bus2=624621939.1.2.3 Length=11.40  units=m  Spacing=8'-ARM-NON-CENTER-POST-3PH wires=['336-ACSR-B-18X1' '336-ACSR-B-18X1' '336-ACSR-B-18X1' '1/0-ACSR-B-6X1']
New Line.254466730 Phases= 3 Bus1=254388683.1.2.3 Bus2=254466732.1.2.3 Length=40.87  units=m  Spacing=DBL-CKT-10'-&amp;-8'-ARMS-3PH wires=['2-CU-B-7' '2-CU-B-7' '2-CU-B-7' '2-CU-B-7']
New Line.624621911 Phases= 1 Bus1=624621908.3     Bus2=254388605.3     Length=67.18  units=m  Spacing=VERTICAL-1-PH-60-1PH wires=['2-ACSR-B-6X1' '2-ACSR-B-6X1']
New Line.452176288 Phases= 3 Bus1=254466927.1.2.3 Bus2=452176284.1.2.3 Length=17.95  units=m  Spacing=8'-ARM-NON-CENTER-POST-3PH wires=['1/0-ACSR-B-6X1' '1/0-ACSR-B-6X1' '1/0-ACSR-B-6X1' '1/0-ACSR-B-6X1']
New Line.695135304 Phases= 3 Bus1=695135288.1.2.3 Bus2=695135302.1.2.3 Length=33.54  units=m  Spacing=DBL-CKT-10'-&amp;-8'-ARMS-3PH wires=['336-ACSR-B-18X1' '336-ACSR-B-18X1' '336-ACSR-B-18X1' '336-ACSR-B-18X1']
New Line.624621858 Phases= 3 Bus1=254466698.1.2.3 Bus2=624621856.1.2.3 Length=43.11  units=m  Spacing=DBL-CKT-10'-&amp;-8'-ARMS-3PH wires=['336-AAC-B-19' '336-AAC-B-19' '336-AAC-B-19' '336-AAC-B-19']
New Line.254466844 Phases= 3 Bus1=254466841.1.2.3 Bus2=254466846.1.2.3 Length=33.33  units=m  Spacing=DBL-CKT-10'-&amp;-8'-ARMS-3PH wires=['336-ACSR-B-18X1' '336-ACSR-B-18X1' '336-ACSR-B-18X1' '336-ACSR-B-18X1']
New Line.254388613 Phases= 1 Bus1=254388610.3     Bus2=254388615.3     Length=54.71  units=m  Spacing=VERTICAL-1-PH-60-1PH wires=['2-ACSR-B-6X1' '2-ACSR-B-6X1']
New Line.695135211 Phases= 3 Bus1=254466720.1.2.3 Bus2=695135209.1.2.3 Length=15.21  units=m  Spacing=DBL-CKT-10'-&amp;-8'-ARMS-3PH wires=['336-AAC-B-19' '336-AAC-B-19' '336-AAC-B-19' '336-AAC-B-19']
New Line.254466942 Phases= 3 Bus1=254466943.1.2.3 Bus2=254466944.1.2.3 Length=6.06   units=m  Spacing=8'-ARM-NON-CENTER-POST-3PH wires=['1/0-ACSR-B-6X1' '1/0-ACSR-B-6X1' '1/0-ACSR-B-6X1' '1/0-ACSR-B-6X1']
New Line.624620030 Phases= 3 Bus1=624620017.1.2.3 Bus2=624620028.1.2.3 Length=18.28  units=m  Spacing=8'-ARM-NON-CENTER-POST-3PH wires=['336-ACSR-B-18X1' '336-ACSR-B-18X1' '336-ACSR-B-18X1' '1/0-ACSR-B-6X1']
New Line.264592149 Phases= 3 Bus1=254433348.1.2.3 Bus2=264592146.1.2.3 Length=85.78  units=m  Spacing=8'-ARM-NON-CENTER-POST-3PH wires=['1/0-ACSR-B-6X1' '1/0-ACSR-B-6X1' '1/0-ACSR-B-6X1' '1/0-ACSR-B-6X1']
New Line.624619849 Phases= 1 Bus1=624619836.3     Bus2=624619847.3     Length=43.91  units=m  Spacing=VERTICAL-1-PH-60-1PH wires=['4-ACSR-B-6X1' '4-ACSR-B-6X1']
New Line.254466713 Phases= 3 Bus1=254466714.1.2.3 Bus2=254466715.1.2.3 Length=48.89  units=m  Spacing=DBL-CKT-10'-&amp;-8'-ARMS-3PH wires=['336-AAC-B-19' '336-AAC-B-19' '336-AAC-B-19' '336-AAC-B-19']
New Line.254388702 Phases= 1 Bus1=254388699.3     Bus2=254388704.3     Length=20.17  units=m  Spacing=VERTICAL-1-PH-60-1PH wires=['4-ACSR-B-6X1' '4-ACSR-B-6X1']
New Line.624621844 Phases= 3 Bus1=624540465.1.2.3 Bus2=624621842.1.2.3 Length=42.11  units=m  Spacing=DBL-CKT-10'-&amp;-8'-ARMS-3PH wires=['336-AAC-B-19' '336-AAC-B-19' '336-AAC-B-19' '336-AAC-B-19']
New Line.470235966 Phases= 3 Bus1=470235964.1.2.3 Bus2=254466858.1.2.3 Length=25.35  units=m  Spacing=DBL-CKT-10'-&amp;-8'-ARMS-3PH wires=['336-ACSR-B-18X1' '336-ACSR-B-18X1' '336-ACSR-B-18X1' '336-ACSR-B-18X1']
New Line.624621543 Phases= 3 Bus1=254466910.1.2.3 Bus2=624621541.1.2.3 Length=6.41   units=m  Spacing=8'-ARM-NON-CENTER-POST-3PH wires=['336-ACSR-B-18X1' '336-ACSR-B-18X1' '336-ACSR-B-18X1' '336-ACSR-B-18X1']
New Line.624619827 Phases= 1 Bus1=254388684.3     Bus2=624619825.3     Length=3.70   units=m  Spacing=VERTICAL-1-PH-60-1PH wires=['4-ACSR-B-6X1' '4-ACSR-B-6X1']
New Line.695135181 Phases= 3 Bus1=695135178.1.2.3 Bus2=254466714.1.2.3 Length=29.75  units=m  Spacing=DBL-CKT-10'-&amp;-8'-ARMS-3PH wires=['336-AAC-B-19' '336-AAC-B-19' '336-AAC-B-19' '336-AAC-B-19']
New Line.263729874 Bus1=254433348.1.2.3 Bus2=263729876.1.2.3 LineCode=1/0-AL-TRXLPELCJ-25KV Phases= 3 Length=1.53   units=m enable=yes
New Line.470236173 Phases= 3 Bus1=470236171.1.2.3 Bus2=254466693.1.2.3 Length=4.62   units=m  Spacing=8'-ARM-NON-CENTER-POST-3PH wires=['336-ACSR-B-18X1' '336-ACSR-B-18X1' '336-ACSR-B-18X1' '1/0-ACSR-B-6X1']
New Line.259322343 Phases= 3 Bus1=259322344.1.2.3 Bus2=259322339.1.2.3 Length=41.01  units=m  Spacing=DBL-CKT-10'-&amp;-8'-ARMS-3PH wires=['2-CU-B-7' '2-CU-B-7' '2-CU-B-7' '2-CU-B-7']
New Line.264591496 Phases= 3 Bus1=254466931.1.2.3 Bus2=264591498.1.2.3 Length=1.53   units=m  Spacing=8'-ARM-STANDARD-3PH wires=['1/0-ACSR-B-6X1' '1/0-ACSR-B-6X1' '1/0-ACSR-B-6X1' '1/0-ACSR-B-6X1']
New Line.470300512 Bus1=470300493.1.2.3 Bus2=470300514.1.2.3 LineCode=1/0-AL-TRXLPELCJ-25KV Phases= 3 Length=1.53   units=m enable=yes
New Line.262279088 Phases= 1 Bus1=254388683.3     Bus2=262279086.3     Length=1.53   units=m  Spacing=VERTICAL-1-PH-60-1PH wires=['4-ACSR-B-6X1' '4-ACSR-B-6X1']
New Line.624621740 Phases= 3 Bus1=624621724.1.2.3 Bus2=624621738.1.2.3 Length=46.27  units=m  Spacing=DBL-CKT-10'-&amp;-8'-ARMS-3PH wires=['336-ACSR-B-18X1' '336-ACSR-B-18X1' '336-ACSR-B-18X1' '336-ACSR-B-18X1']
New Line.624621591 Phases= 3 Bus1=624621578.1.2.3 Bus2=624621589.1.2.3 Length=8.56   units=m  Spacing=8'-ARM-NON-CENTER-POST-3PH wires=['336-ACSR-B-18X1' '336-ACSR-B-18X1' '336-ACSR-B-18X1' '336-ACSR-B-18X1']
New Line.264390621 Phases= 3 Bus1=264390618.1.2.3 Bus2=254466683.1.2.3 Length=6.63   units=m  Spacing=8'-ARM-NON-CENTER-POST-3PH wires=['336-ACSR-B-18X1' '336-ACSR-B-18X1' '336-ACSR-B-18X1' '1/0-ACSR-B-6X1']
New Line.254466871 Phases= 3 Bus1=254466868.1.2.3 Bus2=254466873.1.2.3 Length=79.59  units=m  Spacing=DBL-CKT-10'-&amp;-8'-ARMS-3PH wires=['336-ACSR-B-18X1' '336-ACSR-B-18X1' '336-ACSR-B-18X1' '336-ACSR-B-18X1']
New Line.624621413 Phases= 1 Bus1=624621410.1     Bus2=254466949.1     Length=5.35   units=m  Spacing=VERTICAL-1-PH-60-1PH wires=['1/0-ACSR-B-6X1' '1/0-ACSR-B-6X1']
New Line.264390616 Phases= 3 Bus1=254466682.1.2.3 Bus2=264390618.1.2.3 Length=1.52   units=m  Spacing=8'-ARM-NON-CENTER-POST-3PH wires=['336-ACSR-B-18X1' '336-ACSR-B-18X1' '336-ACSR-B-18X1' '1/0-ACSR-B-6X1']
New Line.624621397 Phases= 1 Bus1=262300034.1     Bus2=624621395.1     Length=23.22  units=m  Spacing=VERTICAL-1-PH-60-1PH wires=['1/0-ACSR-B-6X1' '1/0-ACSR-B-6X1']
New Line.624540084 Phases= 3 Bus1=624540071.1.2.3 Bus2=624540082.1.2.3 Length=121.50 units=m  Spacing=8'-ARM-NON-CENTER-POST-3PH wires=['336-ACSR-B-18X1' '336-ACSR-B-18X1' '336-ACSR-B-18X1' '336-ACSR-B-18X1']
New Line.624621830 Phases= 3 Bus1=254466683.1.2.3 Bus2=624621828.1.2.3 Length=8.76   units=m  Spacing=8'-ARM-NON-CENTER-POST-3PH wires=['336-ACSR-B-18X1' '336-ACSR-B-18X1' '336-ACSR-B-18X1' '1/0-ACSR-B-6X1']
!New Line.469362652 Phases= 3 Bus1=493539622.1.2.3 Bus2=259322334.1.2.3 Length=1.52   units=m  Spacing=DBL-CKT-10'-&amp;-8'-ARMS-3PH wires=['336-ACSR-B-18X1' '336-ACSR-B-18X1' '336-ACSR-B-18X1' '336-ACSR-B-18X1']
New Line.624540044 Phases= 3 Bus1=254466890.1.2.3 Bus2=624540042.1.2.3 Length=54.71  units=m  Spacing=8'-ARM-NON-CENTER-POST-3PH wires=['336-ACSR-B-18X1' '336-ACSR-B-18X1' '336-ACSR-B-18X1' '336-ACSR-B-18X1']
New Line.254466814 Phases= 3 Bus1=254466811.1.2.3 Bus2=254466816.1.2.3 Length=38.74  units=m  Spacing=8'-ARM-NON-CENTER-POST-3PH wires=['336-ACSR-B-18X1' '336-ACSR-B-18X1' '336-ACSR-B-18X1' '1/0-ACSR-B-6X1']
New Line.695135180 Phases= 3 Bus1=695135163.1.2.3 Bus2=695135178.1.2.3 Length=23.92  units=m  Spacing=DBL-CKT-10'-&amp;-8'-ARMS-3PH wires=['336-AAC-B-19' '336-AAC-B-19' '336-AAC-B-19' '336-AAC-B-19']
New Line.624621327 Phases= 3 Bus1=624621324.1.2.3 Bus2=624621313.1.2.3 Length=28.24  units=m  Spacing=8'-ARM-NON-CENTER-POST-3PH wires=['1/0-ACSR-B-6X1' '1/0-ACSR-B-6X1' '1/0-ACSR-B-6X1' '1/0-ACSR-B-6X1']
New Line.624540467 Phases= 3 Bus1=254466693.1.2.3 Bus2=624540465.1.2.3 Length=45.18  units=m  Spacing=DBL-CKT-10'-&amp;-8'-ARMS-3PH wires=['336-AAC-B-19' '336-AAC-B-19' '336-AAC-B-19' '336-AAC-B-19']
